data_bulk\(0\0\1)\(2)
_audit_creation_date              2025-06-06
_audit_creation_method            'Materials Studio'
_symmetry_space_group_name_H-M    'P1'
_symmetry_Int_Tables_number       1
_symmetry_cell_setting            triclinic
loop_
_symmetry_equiv_pos_as_xyz
  x,y,z
_cell_length_a                    2.5263
_cell_length_b                    2.5263
_cell_length_c                    14.5727
_cell_angle_alpha                 90.0000
_cell_angle_beta                  90.0000
_cell_angle_gamma                 90.0000
loop_
_atom_site_label
_atom_site_type_symbol
_atom_site_fract_x
_atom_site_fract_y
_atom_site_fract_z
_atom_site_U_iso_or_equiv
_atom_site_adp_type
_atom_site_occupancy
C1     C     0.00000  -0.00000   0.19120   0.00000  Uiso   1.00
C2     C     0.50000   0.50000   0.06862   0.00000  Uiso   1.00
C3     C     0.50000   0.50000   0.31379   0.00000  Uiso   1.00
C4     C     0.50000   1.00000   0.12991   0.00000  Uiso   1.00
C5     C     0.00000   0.50000   0.25250   0.00000  Uiso   1.00
H6     H     0.86844   0.50000   0.02346   0.00000  Uiso   1.00
H7     H     0.13156   0.50000   0.02346   0.00000  Uiso   1.00
loop_
_geom_bond_atom_site_label_1
_geom_bond_atom_site_label_2
_geom_bond_distance
_geom_bond_site_symmetry_2
_ccdc_geom_bond_type
C1     C5      1.547   1_545 S
C1     C4      1.547   1_545 S
C1     C4      1.547   1_445 S
C2     C4      1.547   .     S
C2     C4      1.547   1_545 S
C2     H6      1.140   .     S
C2     H7      1.140   .     S
C3     C5      1.547   .     S
C3     C5      1.547   1_655 S
C4     C1      1.547   1_565 S
C4     C1      1.547   1_665 S
C4     C2      1.547   1_565 S
C5     C1      1.547   1_565 S
C5     C3      1.547   1_455 S
